data/rao-result/rao-result-io/rao-result-cne/swe-cne-exporter/src/test/resources/SweTestCaseWith12NodesAndXnodes.uct
##C 2007.05.01
##N
##ZBE
BBE1AA1  BE1          0 2 400.00 2500.00 0.00000 -1500.0 0.00000 9000.00 -9000.0 9000.00 -9000.0
BBE2AA1  BE2          0 2 400.00 1000.00 0.00000 -3000.0 0.00000 9000.00 -9000.0 9000.00 -9000.0
BBE3AA1  BE3          0 2 400.00 1500.00 0.00000 -2500.0 0.00000 9000.00 -9000.0 9000.00 -9000.0
##ZES
EES1AA1  ES1          0 2 400.00 3500.00 0.00000 -2500.0 0.00000 9000.00 -9000.0 9000.00 -9000.0
EES2AA1  ES2          0 2 400.00 3000.00 0.00000 -2000.0 0.00000 9000.00 -9000.0 9000.00 -9000.0
EES3AA1  ES3          0 2 400.00 2000.00 0.00000 -1500.0 0.00000 9000.00 -9000.0 9000.00 -9000.0
##ZFR
FFR1AA1  FR1          0 2 400.00 1000.00 0.00000 -2000.0 0.00000 9000.00 -9000.0 9000.00 -9000.0
FFR2AA1  FR2          0 2 400.00 3500.00 0.00000 -2000.0 0.00000 9000.00 -9000.0 9000.00 -9000.0
FFR3AA1  FR3          0 2 400.00 1500.00 0.00000 -3000.0 0.00000 9000.00 -9000.0 9000.00 -9000.0
##ZPT
PPT1AA1  PT1          0 2 400.00 1000.00 0.00000 -1500.0 0.00000 9000.00 -9000.0 9000.00 -9000.0
PPT2AA1  PT2          0 2 400.00 1000.00 0.00000 -500.00 0.00000 9000.00 -9000.0 9000.00 -9000.0
PPT3AA1  PT3          0 2 400.00 2500.00 0.00000 -2000.0 0.00000 9000.00 -9000.0 9000.00 -9000.0
##ZXX
XES_PT11              0 0        0.00000 0.00000 0.00000 0.00000
XES_FR11              0 0        0.00000 0.00000 0.00000 0.00000
##L
BBE1AA1  BBE2AA1  1 0 0.0000 10.000 0.000000   5000
BBE1AA1  BBE3AA1  1 0 0.0000 10.000 0.000000   5000
FFR1AA1  FFR2AA1  1 0 0.0000 10.000 0.000000   5000
FFR1AA1  FFR3AA1  1 0 0.0000 10.000 0.000000   5000
FFR2AA1  FFR3AA1  1 0 0.0000 10.000 0.000000   5000
EES1AA1  EES2AA1  1 0 0.0000 10.000 0.000000   5000
EES1AA1  EES3AA1  1 0 0.0000 10.000 0.000000   5000
EES2AA1  EES3AA1  1 0 0.0000 10.000 0.000000   5000
PPT1AA1  PPT2AA1  1 0 0.0000 10.000 0.000000   5000
PPT1AA1  PPT3AA1  1 0 0.0000 10.000 0.000000   5000
PPT2AA1  PPT3AA1  1 0 0.0000 10.000 0.000000   5000
FFR2AA1  XES_FR11 1 0 0.0000 10.000 0.000000   5000
XES_FR11 EES3AA1  1 0 0.0000 10.000 0.000000   5000
EES2AA1  XES_PT11 1 0 0.0000 10.000 0.000000   5000
XES_PT11 PPT3AA1  1 0 0.0000 10.000 0.000000   5000
BBE2AA1  FFR3AA1  1 0 0.0000 10.000 0.000000   5000
##T
BBE2AA1  BBE3AA1  1 0 400.0 400.0 1000. 0.0000 10.000 0.000000 0.0	     5000 PST
##R
BBE2AA1  BBE3AA1  1                    -0.68 90.00 16  0        SYMM
